14
Lattice="7.391581547913922 0.0 0.0 0.0 7.391581547913922 0.0 0.0 0.0 7.391581547913922" Properties=species:S:1:pos:R:3 pbc="F F F"
Fe       2.46280784       0.18997229       0.68926200
Bk       4.13886380       6.09519078       4.17242790
Bi       0.52524947       1.39386494       6.69687952
Th       0.03975623       1.76343267       5.34843999
Pa       4.30780684       1.98629443       6.81054539
W        2.97200893       3.91224691       2.73113926
Bi       1.91455047       7.06474103       6.34694658
Ho       6.43396771       5.92465500       0.13441947
Cu       6.70533436       2.28321298       2.80370094
Tm       1.44127677       0.25775642       4.53009656
Cu       6.62985511       4.15432530       5.97909810
Rn       7.33013826       7.31192092       4.94989007
Sn       0.24690672       4.99069218       1.89617675
Ru       6.03615231       6.95091291       0.00793364
14
Lattice="7.209367851226482 0.0 -0.5906727839093394 -0.8353374617209313 6.98553985263015 -0.5906727835165103 0.0 0.0 7.310711278726978" Properties=species:S:1:pos:R:3 pbc="F F F"
Fe       2.88004894       0.10382032       0.14845570
Bk       4.80031939       4.80404784       4.60592852
Bi       1.55116845       2.21848216       5.03539167
Th      -0.07796493       0.97999994       4.53153307
Pa       5.23313904       1.08551471       6.44721210
W        1.24443797       3.61106373       2.55231667
Bi       1.79847602       6.70311466       4.39184556
Ho       4.68044306       4.81465567      -0.65223811
Cu       5.65049491       3.44298957       0.80076666
Tm       0.80718248       6.40420753       3.47710922
Cu       5.40891717       5.23068031       4.79536897
Rn       5.74756483       5.45468497       2.61626159
Sn      -0.26019418       3.46393102       1.56474942
Ru       4.19144435       6.00820771      -0.14995626
14
Lattice="6.829224276649854 0.0 -1.822964689306488 -2.5780613867015347 6.138434809055422 -1.8229646880941182 0.0 0.0 7.141995568741507" Properties=species:S:1:pos:R:3 pbc="F F F"
Fe       0.80685493       6.13734821       4.41133296
Bk      -1.26256824       3.05549336       6.21074839
Bi       2.15457178       3.04822930       1.72890852
Th       0.02763691       0.02406817       3.58251486
Pa       4.03326599       6.12707364      -3.57925047
W        5.52180131       3.06797932       0.59499782
Bi       0.93856668       5.92252066       0.88000311
Ho       2.26433710       3.27425239      -1.69138621
Cu       3.18575554       4.59245558       4.35931259
Tm      -0.23120209       4.62180196       1.77137938
Cu       5.12801988       0.04853612       3.96489138
Rn       3.80941618       3.01851421      -0.48684317
Sn      -0.60513880       1.51663259       1.36120675
Ru       1.43615580       4.59577708      -0.50060890
14
Lattice="6.394584915802091 0.0 -3.231912786709418 -4.570614894231593 5.1698923442241 -3.2319127845600217 0.0 0.0 6.9490934831683635" Properties=species:S:1:pos:R:3 pbc="F F F"
Fe      -0.94813476       5.11662769       1.68366202
Bk      -0.56249918       1.91219951      -0.60610494
Bi       1.47631045       3.19034167      -1.82258007
Th      -4.13316240       4.71548021      -0.06039004
Pa      -3.32444062       4.61297272      -3.04576891
W        3.13223840       2.52425594      -0.79391846
Bi      -0.61099412       5.00634074      -2.58244181
Ho       0.60490850       2.21520608      -2.38800628
Cu       0.18800881       4.75641855       0.65141450
Tm      -1.19744837       3.32221017       0.25130094
Cu       3.62921299       0.94284191       2.20277230
Rn       2.77504581       1.53587514      -2.48074402
Sn       5.98885020       0.41129193      -1.70138183
Ru      -0.73699250       3.48285933      -0.97760747
14
Lattice="5.925878745139154 0.0 -4.751293512165308 -6.719343722043702 4.125436018570389 -4.751293509005441 0.0 0.0 6.74107183122794" Properties=species:S:1:pos:R:3 pbc="F F F"
Fe      -2.71782052       4.02477345      -1.56799025
Bk       1.18687615       0.79132323      -0.18174838
Bi       0.10218317       3.23802256      -7.26769829
Th      -5.23622458       3.23546839      -1.74100641
Pa      -3.06495490       3.07293775      -4.59160545
W        0.49092414       1.94802217      -1.43839332
Bi      -2.22117879       4.01525131      -7.01200836
Ho      -0.61173600       1.16505784      -2.02614359
Cu       2.48975234       0.65724105       0.63819012
Tm      -1.49488940       2.01739405      -1.04742840
Cu       0.81627077       1.75441871      -0.28737224
Rn       2.85341444       0.10754148       3.18838576
Sn       0.10726091       3.49148894      -6.95948305
Ru      -2.69949895       2.34841529      -0.39255006
